DSSFiles_European/EuropeanTestGenerators.dss
New  Generator.PVUSER1 			Bus1=34.1	Phases=1	Conn=wye	Model=1 		kV=0.23 		kW=0.0 		kvar=0.0	Vmaxpu=1.10		Vminpu=0.90
New  Generator.PVUSER2 			Bus1=47.2	Phases=1	Conn=wye	Model=1 		kV=0.23 		kW=0.0 		kvar=0.0	Vmaxpu=1.10		Vminpu=0.90
New  Generator.PVUSER3 			Bus1=70.1	Phases=1	Conn=wye	Model=1 		kV=0.23 		kW=0.0 		kvar=0.0	Vmaxpu=1.10		Vminpu=0.90
New  Generator.PVUSER4 			Bus1=73.1	Phases=1	Conn=wye	Model=1 		kV=0.23 		kW=0.0 		kvar=0.0	Vmaxpu=1.10		Vminpu=0.90
New  Generator.PVUSER5 			Bus1=74.1	Phases=1	Conn=wye	Model=1 		kV=0.23 		kW=0.0 		kvar=0.0	Vmaxpu=1.10		Vminpu=0.90
New  Generator.PVUSER6 			Bus1=83.2	Phases=1	Conn=wye	Model=1 		kV=0.23 		kW=0.0 		kvar=0.0	Vmaxpu=1.10		Vminpu=0.90
New  Generator.PVUSER7 			Bus1=178.2	Phases=1	Conn=wye	Model=1 		kV=0.23 		kW=0.0 		kvar=0.0	Vmaxpu=1.10		Vminpu=0.90
New  Generator.PVUSER8 			Bus1=208.3	Phases=1	Conn=wye	Model=1 		kV=0.23 		kW=0.0 		kvar=0.0	Vmaxpu=1.10		Vminpu=0.90
New  Generator.PVUSER9 			Bus1=225.1	Phases=1	Conn=wye	Model=1 		kV=0.23 		kW=0.0 		kvar=0.0	Vmaxpu=1.10		Vminpu=0.90
New  Generator.PVUSER10 		Bus1=248.2	Phases=1	Conn=wye	Model=1 		kV=0.23 		kW=0.0 		kvar=0.0	Vmaxpu=1.10		Vminpu=0.90
New  Generator.PVUSER11 		Bus1=249.2	Phases=1	Conn=wye	Model=1 		kV=0.23 		kW=0.0 		kvar=0.0	Vmaxpu=1.10		Vminpu=0.90
New  Generator.PVUSER12 		Bus1=264.3	Phases=1	Conn=wye	Model=1 		kV=0.23 		kW=0.0 		kvar=0.0	Vmaxpu=1.10		Vminpu=0.90
New  Generator.PVUSER13 		Bus1=276.2	Phases=1	Conn=wye	Model=1 		kV=0.23 		kW=0.0 		kvar=0.0	Vmaxpu=1.10		Vminpu=0.90
New  Generator.PVUSER14 		Bus1=289.1	Phases=1	Conn=wye	Model=1 		kV=0.23 		kW=0.0 		kvar=0.0	Vmaxpu=1.10		Vminpu=0.90
New  Generator.PVUSER15 		Bus1=314.2	Phases=1	Conn=wye	Model=1 		kV=0.23 		kW=0.0 		kvar=0.0	Vmaxpu=1.10		Vminpu=0.90
New  Generator.PVUSER16 		Bus1=320.3	Phases=1	Conn=wye	Model=1 		kV=0.23 		kW=0.0 		kvar=0.0	Vmaxpu=1.10		Vminpu=0.90
New  Generator.PVUSER17 		Bus1=327.3	Phases=1	Conn=wye	Model=1 		kV=0.23 		kW=0.0 		kvar=0.0	Vmaxpu=1.10		Vminpu=0.90
New  Generator.PVUSER18 		Bus1=337.3	Phases=1	Conn=wye	Model=1 		kV=0.23 		kW=0.0 		kvar=0.0	Vmaxpu=1.10		Vminpu=0.90
New  Generator.PVUSER19 		Bus1=342.3	Phases=1	Conn=wye	Model=1 		kV=0.23 		kW=0.0 		kvar=0.0	Vmaxpu=1.10		Vminpu=0.90
New  Generator.PVUSER20 		Bus1=349.1	Phases=1	Conn=wye	Model=1 		kV=0.23 		kW=0.0 		kvar=0.0	Vmaxpu=1.10		Vminpu=0.90
New  Generator.PVUSER21 		Bus1=387.1	Phases=1	Conn=wye	Model=1 		kV=0.23 		kW=0.0 		kvar=0.0	Vmaxpu=1.10		Vminpu=0.90
New  Generator.PVUSER22 		Bus1=388.1	Phases=1	Conn=wye	Model=1 		kV=0.23 		kW=0.0 		kvar=0.0	Vmaxpu=1.10		Vminpu=0.90
New  Generator.PVUSER23 		Bus1=406.2	Phases=1	Conn=wye	Model=1 		kV=0.23 		kW=0.0 		kvar=0.0	Vmaxpu=1.10		Vminpu=0.90
New  Generator.PVUSER24 		Bus1=458.3	Phases=1	Conn=wye	Model=1 		kV=0.23 		kW=0.0 		kvar=0.0	Vmaxpu=1.10		Vminpu=0.90
New  Generator.PVUSER25 		Bus1=502.1	Phases=1	Conn=wye	Model=1 		kV=0.23 		kW=0.0 		kvar=0.0	Vmaxpu=1.10		Vminpu=0.90
New  Generator.PVUSER26 		Bus1=522.2	Phases=1	Conn=wye	Model=1 		kV=0.23 		kW=0.0 		kvar=0.0	Vmaxpu=1.10		Vminpu=0.90
New  Generator.PVUSER27 		Bus1=539.3	Phases=1	Conn=wye	Model=1 		kV=0.23 		kW=0.0 		kvar=0.0	Vmaxpu=1.10		Vminpu=0.90
New  Generator.PVUSER28 		Bus1=556.3	Phases=1	Conn=wye	Model=1 		kV=0.23 		kW=0.0 		kvar=0.0	Vmaxpu=1.10		Vminpu=0.90
New  Generator.PVUSER29 		Bus1=562.1	Phases=1	Conn=wye	Model=1 		kV=0.23 		kW=0.0 		kvar=0.0	Vmaxpu=1.10		Vminpu=0.90
New  Generator.PVUSER30 		Bus1=563.1	Phases=1	Conn=wye	Model=1 		kV=0.23 		kW=0.0 		kvar=0.0	Vmaxpu=1.10		Vminpu=0.90
New  Generator.PVUSER31 		Bus1=611.1	Phases=1	Conn=wye	Model=1 		kV=0.23 		kW=0.0 		kvar=0.0	Vmaxpu=1.10		Vminpu=0.90
New  Generator.PVUSER32 		Bus1=614.3	Phases=1	Conn=wye	Model=1 		kV=0.23 		kW=0.0 		kvar=0.0	Vmaxpu=1.10		Vminpu=0.90
New  Generator.PVUSER33 		Bus1=619.3	Phases=1	Conn=wye	Model=1 		kV=0.23 		kW=0.0 		kvar=0.0	Vmaxpu=1.10		Vminpu=0.90
New  Generator.PVUSER34 		Bus1=629.1	Phases=1	Conn=wye	Model=1 		kV=0.23 		kW=0.0 		kvar=0.0	Vmaxpu=1.10		Vminpu=0.90
New  Generator.PVUSER35 		Bus1=639.2	Phases=1	Conn=wye	Model=1 		kV=0.23 		kW=0.0 		kvar=0.0	Vmaxpu=1.10		Vminpu=0.90
New  Generator.PVUSER36 		Bus1=676.2	Phases=1	Conn=wye	Model=1 		kV=0.23 		kW=0.0 		kvar=0.0	Vmaxpu=1.10		Vminpu=0.90
New  Generator.PVUSER37 		Bus1=682.2	Phases=1	Conn=wye	Model=1 		kV=0.23 		kW=0.0 		kvar=0.0	Vmaxpu=1.10		Vminpu=0.90
New  Generator.PVUSER38 		Bus1=688.2	Phases=1	Conn=wye	Model=1 		kV=0.23 		kW=0.0 		kvar=0.0	Vmaxpu=1.10		Vminpu=0.90
New  Generator.PVUSER39 		Bus1=701.3	Phases=1	Conn=wye	Model=1 		kV=0.23 		kW=0.0 		kvar=0.0	Vmaxpu=1.10		Vminpu=0.90
New  Generator.PVUSER40 		Bus1=702.2	Phases=1	Conn=wye	Model=1 		kV=0.23 		kW=0.0 		kvar=0.0	Vmaxpu=1.10		Vminpu=0.90
New  Generator.PVUSER41 		Bus1=755.2	Phases=1	Conn=wye	Model=1 		kV=0.23 		kW=0.0 		kvar=0.0	Vmaxpu=1.10		Vminpu=0.90
New  Generator.PVUSER42 		Bus1=778.3	Phases=1	Conn=wye	Model=1 		kV=0.23 		kW=0.0 		kvar=0.0	Vmaxpu=1.10		Vminpu=0.90
New  Generator.PVUSER43 		Bus1=780.3	Phases=1	Conn=wye	Model=1 		kV=0.23 		kW=0.0 		kvar=0.0	Vmaxpu=1.10		Vminpu=0.90
New  Generator.PVUSER44 		Bus1=785.2	Phases=1	Conn=wye	Model=1 		kV=0.23 		kW=0.0 		kvar=0.0	Vmaxpu=1.10		Vminpu=0.90
New  Generator.PVUSER45 		Bus1=813.2	Phases=1	Conn=wye	Model=1 		kV=0.23 		kW=0.0 		kvar=0.0	Vmaxpu=1.10		Vminpu=0.90
New  Generator.PVUSER46 		Bus1=817.1	Phases=1	Conn=wye	Model=1 		kV=0.23 		kW=0.0 		kvar=0.0	Vmaxpu=1.10		Vminpu=0.90
New  Generator.PVUSER47 		Bus1=835.3	Phases=1	Conn=wye	Model=1 		kV=0.23 		kW=0.0 		kvar=0.0	Vmaxpu=1.10		Vminpu=0.90
New  Generator.PVUSER48 		Bus1=860.1	Phases=1	Conn=wye	Model=1 		kV=0.23 		kW=0.0 		kvar=0.0	Vmaxpu=1.10		Vminpu=0.90
New  Generator.PVUSER49 		Bus1=861.1	Phases=1	Conn=wye	Model=1 		kV=0.23 		kW=0.0 		kvar=0.0	Vmaxpu=1.10		Vminpu=0.90
New  Generator.PVUSER50 		Bus1=886.2	Phases=1	Conn=wye	Model=1 		kV=0.23 		kW=0.0 		kvar=0.0	Vmaxpu=1.10		Vminpu=0.90
New  Generator.PVUSER51 		Bus1=896.1	Phases=1	Conn=wye	Model=1 		kV=0.23 		kW=0.0 		kvar=0.0	Vmaxpu=1.10		Vminpu=0.90
New  Generator.PVUSER52 		Bus1=898.1	Phases=1	Conn=wye	Model=1 		kV=0.23 		kW=0.0 		kvar=0.0	Vmaxpu=1.10		Vminpu=0.90
New  Generator.PVUSER53 		Bus1=899.2	Phases=1	Conn=wye	Model=1 		kV=0.23 		kW=0.0 		kvar=0.0	Vmaxpu=1.10		Vminpu=0.90
New  Generator.PVUSER54 		Bus1=900.1	Phases=1	Conn=wye	Model=1 		kV=0.23 		kW=0.0 		kvar=0.0	Vmaxpu=1.10		Vminpu=0.90
New  Generator.PVUSER55 		Bus1=906.1	Phases=1	Conn=wye	Model=1 		kV=0.23 		kW=0.0 		kvar=0.0	Vmaxpu=1.10		Vminpu=0.90